14
Frame 1
C -4.0011 1.5685 0.4174
C -2.8256 0.5529 0.2111
C -1.3534 1.2730 0.2532
C -0.0220 0.4091 0.0627
H -3.9845 1.9563 1.4893
H -4.9944 1.0459 0.2177
H -3.8796 2.4423 -0.3047
H -2.8719 -0.2314 1.0371
H -2.9553 0.0426 -0.8001
H -1.2687 1.7839 1.2687
H -1.3508 2.0700 -0.5618
H 0.3637 0.0756 1.0823
H 0.7715 1.0430 -0.4550
H -0.2518 -0.5075 -0.5750
