14
Frame 1
C -1.8892 1.4612 0.3171
C -0.7018 2.3279 0.4415
C -1.2006 3.6416 0.6036
C 0.2643 1.2082 0.1395
H -1.7213 0.6180 0.6688
H -2.9537 1.6494 -0.1564
H -2.2584 0.7089 1.1789
H 1.0754 1.6725 -0.6687
H -0.5557 3.8193 1.5436
H -2.0290 3.7665 -0.2753
H 0.4430 0.6054 1.1725
H 0.1144 2.9340 -0.0971
H -0.3028 0.8293 -0.3379
H -0.3968 4.1023 -0.0606
